LTspice 24.1.10 for Windows
Circuit: C:\Users\Ali\Documents\Ali\University\Fall 25\Microelec\project\Microelectronics_Project\src\i_hope_it_works.cir
Start Time: Sat Dec 13 00:21:39 2025
Options: reltol=1e-3 abstol=1e-12 vntol=1e-6 maxord=2  method=gear
solver = Normal
Maximum thread count: 16
tnom = 27
temp = 27
method = Gear
Model "pmos0p18": Oxide thickness thinner than recommended for a level 1 MOSFET.
Instance "xpar:xia:Mp_out": Length shorter than recommended for a level 1 MOSFET.
Instance "xpar:xia:Mp_out": Width narrower than recommended for a level 1 MOSFET.
Instance "xpar:xib:Mp_out": Length shorter than recommended for a level 1 MOSFET.
Instance "xpar:xib:Mp_out": Width narrower than recommended for a level 1 MOSFET.
Instance "xpar:xic:Mp_out": Length shorter than recommended for a level 1 MOSFET.
Instance "xpar:xic:Mp_out": Width narrower than recommended for a level 1 MOSFET.
Instance "xpar:Mp_m19": Length shorter than recommended for a level 1 MOSFET.
Instance "xpar:Mp_m19": Width narrower than recommended for a level 1 MOSFET.
Instance "xpar:Mp_m15": Length shorter than recommended for a level 1 MOSFET.
Instance "xpar:Mp_m15": Width narrower than recommended for a level 1 MOSFET.
Instance "xpar:Mp_m16": Length shorter than recommended for a level 1 MOSFET.
Instance "xpar:Mp_m16": Width narrower than recommended for a level 1 MOSFET.
Instance "xpar:Mp_m14": Length shorter than recommended for a level 1 MOSFET.
Instance "xpar:Mp_m14": Width narrower than recommended for a level 1 MOSFET.
Instance "xpar:Mp_m13": Length shorter than recommended for a level 1 MOSFET.
Instance "xpar:Mp_m13": Width narrower than recommended for a level 1 MOSFET.
Instance "xpar:Mp_m20": Length shorter than recommended for a level 1 MOSFET.
Instance "xpar:Mp_m20": Width narrower than recommended for a level 1 MOSFET.
Instance "xpar:Mp_m17": Length shorter than recommended for a level 1 MOSFET.
Instance "xpar:Mp_m17": Width narrower than recommended for a level 1 MOSFET.
Instance "xpar:Mp_m18": Length shorter than recommended for a level 1 MOSFET.
Instance "xpar:Mp_m18": Width narrower than recommended for a level 1 MOSFET.
Instance "xpar:Mp_m12": Length shorter than recommended for a level 1 MOSFET.
Instance "xpar:Mp_m12": Width narrower than recommended for a level 1 MOSFET.
Instance "xpar:Mp_m11": Length shorter than recommended for a level 1 MOSFET.
Instance "xpar:Mp_m11": Width narrower than recommended for a level 1 MOSFET.
Model "nmos0p18": Oxide thickness thinner than recommended for a level 1 MOSFET.
Instance "xpar:xia:Mn_out": Length shorter than recommended for a level 1 MOSFET.
Instance "xpar:xia:Mn_out": Width narrower than recommended for a level 1 MOSFET.
Instance "xpar:xib:Mn_out": Length shorter than recommended for a level 1 MOSFET.
Instance "xpar:xib:Mn_out": Width narrower than recommended for a level 1 MOSFET.
Instance "xpar:xic:Mn_out": Length shorter than recommended for a level 1 MOSFET.
Instance "xpar:xic:Mn_out": Width narrower than recommended for a level 1 MOSFET.
Instance "xpar:Mn_m8": Length shorter than recommended for a level 1 MOSFET.
Instance "xpar:Mn_m8": Width narrower than recommended for a level 1 MOSFET.
Instance "xpar:Mn_m6": Length shorter than recommended for a level 1 MOSFET.
Instance "xpar:Mn_m6": Width narrower than recommended for a level 1 MOSFET.
Instance "xpar:Mn_m7": Length shorter than recommended for a level 1 MOSFET.
Instance "xpar:Mn_m7": Width narrower than recommended for a level 1 MOSFET.
Instance "xpar:Mn_m9": Length shorter than recommended for a level 1 MOSFET.
Instance "xpar:Mn_m9": Width narrower than recommended for a level 1 MOSFET.
Instance "xpar:Mn_m10": Length shorter than recommended for a level 1 MOSFET.
Instance "xpar:Mn_m10": Width narrower than recommended for a level 1 MOSFET.
Instance "xpar:Mn_m3": Length shorter than recommended for a level 1 MOSFET.
Instance "xpar:Mn_m3": Width narrower than recommended for a level 1 MOSFET.
Instance "xpar:Mn_m1": Length shorter than recommended for a level 1 MOSFET.
Instance "xpar:Mn_m1": Width narrower than recommended for a level 1 MOSFET.
Instance "xpar:Mn_m2": Length shorter than recommended for a level 1 MOSFET.
Instance "xpar:Mn_m2": Width narrower than recommended for a level 1 MOSFET.
Instance "xpar:Mn_m4": Length shorter than recommended for a level 1 MOSFET.
Instance "xpar:Mn_m4": Width narrower than recommended for a level 1 MOSFET.
Instance "xpar:Mn_m5": Length shorter than recommended for a level 1 MOSFET.
Instance "xpar:Mn_m5": Width narrower than recommended for a level 1 MOSFET.
Direct Newton iteration for .op point succeeded.
Total elapsed time: 0.196 seconds.

Files loaded:
C:\Users\Ali\Documents\Ali\University\Fall 25\Microelec\project\Microelectronics_Project\src\i_hope_it_works.cir
C:\Users\Ali\Documents\Ali\University\Fall 25\Microelec\project\Microelectronics_Project\src\MOSFET_models_0p5_0p18-3.inc

tphl=5.31703237292e-09 FROM 3.00000002975e-10 TO 5.61703237589e-09
tplh=-4.9947517276e-09 FROM 5.50000000234e-09 TO 5.05248274744e-10
