LTspice 24.1.10 for Windows
Circuit: C:\Users\Ali\Documents\Ali\University\Fall 25\Microelec\project\Microelectronics_Project\src\matched_ 5.cir
Start Time: Wed Dec 10 10:50:51 2025
solver = Normal
Maximum thread count: 16
tnom = 27
temp = 27
method = trap
Model "pmos0p5": Oxide thickness thinner than recommended for a level 1 MOSFET.
Instance "MPMOS": Length shorter than recommended for a level 1 MOSFET.
Instance "MPMOS": Width narrower than recommended for a level 1 MOSFET.
Model "nmos0p5": Oxide thickness thinner than recommended for a level 1 MOSFET.
Instance "MNMOS": Length shorter than recommended for a level 1 MOSFET.
Instance "MNMOS": Width narrower than recommended for a level 1 MOSFET.
Direct Newton iteration for .op point succeeded.
Total elapsed time: 0.077 seconds.

Files loaded:
C:\Users\Ali\Documents\Ali\University\Fall 25\Microelec\project\Microelectronics_Project\src\matched_ 5.cir
C:\Users\Ali\Documents\Ali\University\Fall 25\Microelec\project\Microelectronics_Project\src\MOSFET_models_0p5_0p18-3.inc

tphl=9.4446391471e-11 FROM 2.99999996955e-10 TO 3.94446388426e-10
tplh=6.6696185555e-11 FROM 5.50000000144e-09 TO 5.566696187e-09
