LTspice 24.1.10 for Windows
Circuit: C:\Users\Ali\Documents\Ali\University\Fall 25\Microelec\project\Microelectronics_Project\src\min_18.cir
Start Time: Tue Dec  9 19:06:12 2025
solver = Normal
Maximum thread count: 16
tnom = 27
temp = 27
method = trap
Model "pmos0p18": Oxide thickness thinner than recommended for a level 1 MOSFET.
Instance "MPMOS": Length shorter than recommended for a level 1 MOSFET.
Instance "MPMOS": Width narrower than recommended for a level 1 MOSFET.
Model "nmos0p18": Oxide thickness thinner than recommended for a level 1 MOSFET.
Instance "MNMOS": Length shorter than recommended for a level 1 MOSFET.
Instance "MNMOS": Width narrower than recommended for a level 1 MOSFET.
Direct Newton iteration for .op point succeeded.
Total elapsed time: 0.108 seconds.

Files loaded:
C:\Users\Ali\Documents\Ali\University\Fall 25\Microelec\project\Microelectronics_Project\src\min_18.cir
C:\Users\Ali\Documents\Ali\University\Fall 25\Microelec\project\Microelectronics_Project\src\MOSFET_models_0p5_0p18-3.inc

tphl=2.06922430712e-12 FROM 5.00000013694e-13 TO 2.56922432081e-12
tplh=2.18322871585e-10 FROM 5.00149999999e-09 TO 5.21982287157e-09
