LTspice 24.1.10 for Windows
Circuit: C:\Users\Ali\Documents\Ali\University\Fall 25\Microelec\project\Microelectronics_Project\src\min_18.cir
Start Time: Fri Dec 12 13:58:30 2025
solver = Normal
Maximum thread count: 16
tnom = 27
temp = 27
method = trap
Model "pmos0p18": Oxide thickness thinner than recommended for a level 1 MOSFET.
Instance "MPMOS": Length shorter than recommended for a level 1 MOSFET.
Instance "MPMOS": Width narrower than recommended for a level 1 MOSFET.
Model "nmos0p18": Oxide thickness thinner than recommended for a level 1 MOSFET.
Instance "MNMOS": Length shorter than recommended for a level 1 MOSFET.
Instance "MNMOS": Width narrower than recommended for a level 1 MOSFET.
Direct Newton iteration for .op point succeeded.
Total elapsed time: 0.095 seconds.

Files loaded:
C:\Users\Ali\Documents\Ali\University\Fall 25\Microelec\project\Microelectronics_Project\src\min_18.cir
C:\Users\Ali\Documents\Ali\University\Fall 25\Microelec\project\Microelectronics_Project\src\MOSFET_models_0p5_0p18-3.inc

tphl=5.1706136773e-11 FROM 3.00000002975e-10 TO 3.51706139749e-10
tplh=-2.38426713247e-11 FROM 5.50000000132e-09 TO 5.47615733e-09
